Version 4
SHEET 1 1632 824
WIRE -736 -304 -768 -304
WIRE -768 -272 -768 -304
WIRE -768 -176 -768 -192
WIRE -768 -176 -816 -176
WIRE -816 -160 -816 -176
WIRE -768 -160 -768 -176
WIRE -16 -64 -96 -64
WIRE 128 -64 64 -64
WIRE -768 -48 -768 -80
WIRE -736 -48 -768 -48
WIRE 544 -32 464 -32
WIRE 656 -32 608 -32
WIRE -240 64 -256 64
WIRE -96 64 -96 -64
WIRE -96 64 -160 64
WIRE -528 96 -832 96
WIRE -96 96 -96 64
WIRE -16 96 -96 96
WIRE 128 96 128 -64
WIRE 224 96 224 80
WIRE 224 96 128 96
WIRE 304 96 224 96
WIRE 464 96 464 -32
WIRE 464 96 384 96
WIRE -528 112 -528 96
WIRE -256 112 -256 64
WIRE -256 112 -528 112
WIRE 128 112 128 96
WIRE 128 112 48 112
WIRE -16 128 -48 128
WIRE 592 128 592 112
WIRE 464 144 464 96
WIRE 528 144 464 144
WIRE 560 144 528 144
WIRE -832 160 -832 96
WIRE -256 160 -256 112
WIRE -240 160 -256 160
WIRE -128 160 -160 160
WIRE -48 160 -48 128
WIRE -48 160 -128 160
WIRE 656 160 656 -32
WIRE 656 160 624 160
WIRE 688 160 656 160
WIRE 704 160 688 160
WIRE 528 176 512 176
WIRE 560 176 528 176
WIRE 592 208 592 192
WIRE -128 272 -128 160
WIRE 512 320 512 176
WIRE -128 400 -128 368
WIRE 688 448 688 160
WIRE 688 448 448 448
WIRE -176 464 -176 352
WIRE 176 464 176 448
WIRE 176 464 -176 464
WIRE 272 464 176 464
WIRE 384 464 272 464
WIRE 560 480 448 480
WIRE 272 624 272 464
WIRE 416 624 272 624
WIRE 560 624 560 480
WIRE 560 624 496 624
WIRE 560 672 560 624
WIRE 560 784 560 752
FLAG 512 320 0
FLAG 704 160 Vs3
FLAG -816 -160 0
FLAG -736 -304 +VCC
FLAG -736 -48 -VCC
FLAG 592 112 +VCC
IOPIN 592 112 In
FLAG 592 208 -VCC
IOPIN 592 208 In
FLAG 528 176 V+
FLAG 528 144 V-
FLAG 16 80 +VCC
FLAG 416 432 +VCC
FLAG 16 144 -VCC
FLAG 416 496 -VCC
FLAG 560 784 0
FLAG -832 240 0
FLAG 176 448 Vs1
FLAG 224 80 Vs2
FLAG -128 400 0
SYMBOL voltage -768 -288 R0
WINDOW 3 38 53 Left 2
SYMATTR Value 13
SYMATTR InstName V1
SYMBOL voltage -768 -176 R0
WINDOW 3 37 56 Left 2
SYMATTR Value 13
SYMATTR InstName V2
SYMBOL TL081 592 96 R0
SYMATTR InstName U1
SYMBOL res 400 80 R90
WINDOW 0 0 56 VBottom 2
WINDOW 3 32 56 VTop 2
SYMATTR InstName R4
SYMATTR Value 6948
SYMBOL cap 608 -48 R90
WINDOW 0 0 32 VBottom 2
WINDOW 3 32 32 VTop 2
SYMATTR InstName C
SYMATTR Value 15n
SYMBOL TL081 16 48 R0
SYMATTR InstName U2
SYMBOL TL081 416 400 M0
SYMATTR InstName U3
SYMBOL res -144 48 R90
WINDOW 0 0 56 VBottom 2
WINDOW 3 32 56 VTop 2
SYMATTR InstName R1
SYMATTR Value 22k
SYMBOL res 80 -80 R90
WINDOW 0 0 56 VBottom 2
WINDOW 3 32 56 VTop 2
SYMATTR InstName R2
SYMATTR Value 22k
SYMBOL res -144 144 R90
WINDOW 0 0 56 VBottom 2
WINDOW 3 32 56 VTop 2
SYMATTR InstName R3
SYMATTR Value 82k
SYMBOL res 576 768 R180
WINDOW 0 36 76 Left 2
WINDOW 3 36 40 Left 2
SYMATTR InstName R5
SYMATTR Value 10k
SYMBOL res 512 608 R90
WINDOW 0 0 56 VBottom 2
WINDOW 3 32 56 VTop 2
SYMATTR InstName R6
SYMATTR Value 12953
SYMBOL voltage -832 144 R0
WINDOW 123 0 0 Left 0
WINDOW 39 0 0 Left 0
SYMATTR InstName V_MCV4
SYMATTR Value 2.17
SYMBOL nmos -176 272 R0
SYMATTR InstName M1
SYMATTR Value 2N7002
TEXT -864 808 Left 2 !.tran 5m uic
