Version 4
SHEET 1 880 680
WIRE 160 112 64 112
WIRE 288 112 224 112
WIRE 64 144 64 112
WIRE 288 144 288 112
FLAG 288 224 0
FLAG 64 224 0
FLAG 288 112 Vs
FLAG 64 112 Ve
SYMBOL diode 160 128 R270
WINDOW 0 32 32 VTop 2
WINDOW 3 0 32 VBottom 2
SYMATTR InstName D1
SYMBOL voltage 64 128 R0
WINDOW 123 0 0 Left 0
WINDOW 39 0 0 Left 0
SYMATTR InstName V1
SYMATTR Value SINE(0 2 1k)
SYMBOL res 272 128 R0
SYMATTR InstName R1
SYMATTR Value 1k
TEXT 30 238 Left 2 !.tran 2ms
